LAMMPS (20 Nov 2019)

units         lj
atom_style    atomic
dimension     3
boundary      p p p

lattice       fcc 1
Lattice spacing in x,y,z = 1.5874 1.5874 1.5874
region        soluto    block 9.5  10.5 0 10 0 10
region        solvente1 block 15  20  0 10 0 10
region        solvente2 block 0   4  0 10 0 10

region        box block 0 20 0 10 0 10
create_box    2 box
Created orthogonal box = (0 0 0) to (31.748 15.874 15.874)

create_atoms  1 region solvente1
Created 2000 atoms
create_atoms  1 region solvente2
Created 1800 atoms
create_atoms  2 region soluto
Created 600 atoms

pair_style    lj/cut 2.5

pair_coeff    1 1 1.0  1.0
pair_coeff    1 2 1.41 1.0
pair_coeff    2 2 2.0  1.0
mass          1 1.0
mass          2 1.0

# i create a group in order to use fix wall only with soluto

group         gsoluto type 2
600 atoms in group gsoluto
group         gsolvente type 1
3800 atoms in group gsolvente
fix           1 all nve

#gsolvente = A_atoms
#gsoluto = B_atoms

fix            rwall1 gsoluto wall/lj126 xlo 7 1.0 1.0 1.5 pbc yes
fix            rwall2 gsoluto wall/lj126 xhi 12 1.0 1.0 1.5 pbc yes

# Epsilon , Sigma  , R_cut

velocity      all create 2 4928459
timestep      0.001

neighbor      0.3 bin
neigh_modify  every 10 delay 0 check yes

#minimize     1.0e-5 1.0e-6 1000 10000
thermo_style  custom step ke pe etotal press vol density
thermo        100
run_style     verlet

# output data

dump           d all xyz 100 posicion5.xyz
#dump          dd gsoluto  xyz 100 posicion3.xyz type 2
write_data     data.write
  update every 10 steps, delay 0 steps, check yes

#run            10000

variable k equal ke

variable i loop 3
label myloop

run 10000
Step KinEng PotEng TotEng Press Volume Density
0    2.9993182   -8.0181637   -5.0188455  -0.74750176         8000         0.55
Averages over the last 51 of 101 rows, steps 5000 to 10000:
KinEng PotEng TotEng Press Volume Density
0.96806 -5.99414 -5.02608 0.00760114 8000 0.55
Loop time of 60.6402 on 1 procs for 10000 steps with 4400 atoms

next i
jump SELF myloop

print 'Walls off'
Walls off
unfix rwall1
unfix rwall2

run 10000
Step KinEng PotEng TotEng Press Volume Density
10000   0.91717614   -5.9372205   -5.0200444  -0.28862173         8000         0.55
Averages over the last 51 of 101 rows, steps 15000 to 20000:
KinEng PotEng TotEng Press Volume Density
0.937385 -5.95939 -5.02201 -0.167371 8000 0.55
Loop time of 62.8845 on 1 procs for 10000 steps with 4400 atoms

jump SELF myescape

print "Enrique es el final"
Enrique es el final

#dump           d all xyz 100 posicion3.xyz
#dump          dd gsoluto  xyz 100 posicion3.xyz type 2
#write_data     data.write

#run           10000
